MERGE (d:Document {id: '381a4d53dd74c016568b7f9119925fec'}) SET d.text = 'CHAPTER 1 STRUCTURAL OVERVIEW eta/DYNAFORM is a completely new Graphic User Interface (GUI) package operating on Windows (10 and higher) platform. The model generation and input file preparation of a typical stamping simulation are performed in the eta/DYNAFORM Geometry Manager, while the stamping simulation result is processed in Result. The solver, LS-DYNA can be executed on either local or remote server systems. eta/DYNAFORM is organized as a tree structure and is operated and controlled by the user-friendly GUI.' WITH d CALL apoc.merge.node(['软件software'], {id: 'Eta/Dynaform'}, {名称name: 'eta/DYNAFORM', 描述description: 'a completely new Graphic User Interface (GUI) package operating on Windows (10 and higher) platform.', 平台platform: 'Windows (10 and higher)'}, {}) YIELD node MERGE (d)-[:MENTIONS]->(node);;
MERGE (d:Document {id: '381a4d53dd74c016568b7f9119925fec'}) SET d.text = 'CHAPTER 1 STRUCTURAL OVERVIEW eta/DYNAFORM is a completely new Graphic User Interface (GUI) package operating on Windows (10 and higher) platform. The model generation and input file preparation of a typical stamping simulation are performed in the eta/DYNAFORM Geometry Manager, while the stamping simulation result is processed in Result. The solver, LS-DYNA can be executed on either local or remote server systems. eta/DYNAFORM is organized as a tree structure and is operated and controlled by the user-friendly GUI.' WITH d CALL apoc.merge.node(['功能/特性feature/function'], {id: 'Geometry Manager'}, {名称name: 'Geometry Manager', 描述description: 'the model generation and input file preparation of a typical stamping simulation are performed.'}, {}) YIELD node MERGE (d)-[:MENTIONS]->(node);;
MERGE (d:Document {id: '381a4d53dd74c016568b7f9119925fec'}) SET d.text = 'CHAPTER 1 STRUCTURAL OVERVIEW eta/DYNAFORM is a completely new Graphic User Interface (GUI) package operating on Windows (10 and higher) platform. The model generation and input file preparation of a typical stamping simulation are performed in the eta/DYNAFORM Geometry Manager, while the stamping simulation result is processed in Result. The solver, LS-DYNA can be executed on either local or remote server systems. eta/DYNAFORM is organized as a tree structure and is operated and controlled by the user-friendly GUI.' WITH d CALL apoc.merge.node(['功能/特性feature/function'], {id: 'Result'}, {名称name: 'Result', 描述description: 'the stamping simulation result is processed.'}, {}) YIELD node MERGE (d)-[:MENTIONS]->(node);;
MERGE (d:Document {id: '381a4d53dd74c016568b7f9119925fec'}) SET d.text = 'CHAPTER 1 STRUCTURAL OVERVIEW eta/DYNAFORM is a completely new Graphic User Interface (GUI) package operating on Windows (10 and higher) platform. The model generation and input file preparation of a typical stamping simulation are performed in the eta/DYNAFORM Geometry Manager, while the stamping simulation result is processed in Result. The solver, LS-DYNA can be executed on either local or remote server systems. eta/DYNAFORM is organized as a tree structure and is operated and controlled by the user-friendly GUI.' WITH d CALL apoc.merge.node(['软件software'], {id: 'Ls-Dyna'}, {名称name: 'LS-DYNA', 描述description: 'the solver that can be executed on either local or remote server systems.'}, {}) YIELD node MERGE (d)-[:MENTIONS]->(node);;
CALL apoc.merge.node(['软件software'], {id: 'Eta/Dynaform'}, {}, {}) YIELD node as source WITH source CALL apoc.merge.node(['功能/特性feature/function'], {id: 'Geometry Manager'}, {}, {}) YIELD node as target WITH source, target CALL apoc.merge.relationship(source, '包含模块HAS_MODULE', {}, {}, target) YIELD rel RETURN rel;;
CALL apoc.merge.node(['软件software'], {id: 'Eta/Dynaform'}, {}, {}) YIELD node as source WITH source CALL apoc.merge.node(['功能/特性feature/function'], {id: 'Result'}, {}, {}) YIELD node as target WITH source, target CALL apoc.merge.relationship(source, '包含模块HAS_MODULE', {}, {}, target) YIELD rel RETURN rel;;
CALL apoc.merge.node(['软件software'], {id: 'Eta/Dynaform'}, {}, {}) YIELD node as source WITH source CALL apoc.merge.node(['软件software'], {id: 'Ls-Dyna'}, {}, {}) YIELD node as target WITH source, target CALL apoc.merge.relationship(source, '使用输入设备USES_INPUT_DEVICE', {}, {}, target) YIELD rel RETURN rel;;
MERGE (d:Document {id: '867125a49928c942920e6e44ec57b162'}) SET d.text = '1.1 MENU BAR eta/DYNAFORM menus are selected by mouse picking and contain a wide variety of functions. Under each menu, the user can click on various icons to activate the functions.' WITH d CALL apoc.merge.node(['功能/特性feature/function'], {id: 'Menu Bar'}, {名称name: 'MENU BAR', 描述description: 'eta/DYNAFORM menus are selected by mouse picking and contain a wide variety of functions. Under each menu, the user can click on various icons to activate the functions.'}, {}) YIELD node MERGE (d)-[:MENTIONS]->(node);;
MERGE (d:Document {id: 'ea1ffdee4e548f953b1726c614e2eca9'}) SET d.text = 'ProjectBSEDFDFS。 DataGeometry View国 Utilities ResultReportHelp ProjectImports/exports data to/from eta/DYNAFORM.BSEBlank Size Engineering includes a modified one-step-based unfolding function, spring back, blank development and nesting function.Die Face DesignThe Die Face Design (DFD) module provides abundant tools for fast die surface design, including the binder and addendum design, local feature modification and fast evaluation of die face design, etc.' WITH d CALL apoc.merge.node(['项目project'], {id: 'Projectbsedfdfs'}, {名称name: 'ProjectBSEDFDFS', 描述description: 'Imports/exports data to/from eta/DYNAFORM.'}, {}) YIELD node MERGE (d)-[:MENTIONS]->(node);;
MERGE (d:Document {id: 'ea1ffdee4e548f953b1726c614e2eca9'}) SET d.text = 'ProjectBSEDFDFS。 DataGeometry View国 Utilities ResultReportHelp ProjectImports/exports data to/from eta/DYNAFORM.BSEBlank Size Engineering includes a modified one-step-based unfolding function, spring back, blank development and nesting function.Die Face DesignThe Die Face Design (DFD) module provides abundant tools for fast die surface design, including the binder and addendum design, local feature modification and fast evaluation of die face design, etc.' WITH d CALL apoc.merge.node(['项目project'], {id: 'Blanksizeengineering'}, {名称name: 'Blank Size Engineering', 描述description: 'Includes a modified one-step-based unfolding function, spring back, blank development and nesting function.'}, {}) YIELD node MERGE (d)-[:MENTIONS]->(node);;
MERGE (d:Document {id: 'ea1ffdee4e548f953b1726c614e2eca9'}) SET d.text = 'ProjectBSEDFDFS。 DataGeometry View国 Utilities ResultReportHelp ProjectImports/exports data to/from eta/DYNAFORM.BSEBlank Size Engineering includes a modified one-step-based unfolding function, spring back, blank development and nesting function.Die Face DesignThe Die Face Design (DFD) module provides abundant tools for fast die surface design, including the binder and addendum design, local feature modification and fast evaluation of die face design, etc.' WITH d CALL apoc.merge.node(['项目project'], {id: 'Diefacedesign'}, {名称name: 'Die Face Design', 描述description: 'Provides abundant tools for fast die surface design, including the binder and addendum design, local feature modification and fast evaluation of die face design, etc.'}, {}) YIELD node MERGE (d)-[:MENTIONS]->(node);;
MERGE (d:Document {id: '1ad1e13c282c91767ef1d3e72546f9e4'}) SET d.text = 'The user can modify the binder and addendum according to the results of evaluation, which significantly speeds up the efficiency of die face design optimization.Formability SimulationThe Formability Simulation module provides a complete set of solutions for problems existed in the sheet forming process.Tube FormingThe Tube Forming module provides a complete set of solutions for tube bending and hydroforming analysis.' WITH d CALL apoc.merge.node(['模块module'], {id: 'Formability Simulation'}, {描述description: 'The Formability Simulation module provides a complete set of solutions for problems existed in the sheet forming process.', 名称name: 'Formability Simulation'}, {}) YIELD node MERGE (d)-[:MENTIONS]->(node);;
MERGE (d:Document {id: '1ad1e13c282c91767ef1d3e72546f9e4'}) SET d.text = 'The user can modify the binder and addendum according to the results of evaluation, which significantly speeds up the efficiency of die face design optimization.Formability SimulationThe Formability Simulation module provides a complete set of solutions for problems existed in the sheet forming process.Tube FormingThe Tube Forming module provides a complete set of solutions for tube bending and hydroforming analysis.' WITH d CALL apoc.merge.node(['模块module'], {id: 'Tube Forming'}, {描述description: 'The Tube Forming module provides a complete set of solutions for tube bending and hydroforming analysis.', 名称name: 'Tube Forming'}, {}) YIELD node MERGE (d)-[:MENTIONS]->(node);;
MERGE (d:Document {id: 'a5d8624351dcbab678136807ba3c49a9'}) SET d.text = 'This module supports users to complete the processes from product import to analysis results, including Tube Bending, Pre-forming, Annealing, Hydroforming, Piercing and Trimming and other processes. Data ManagerThis application is used to manage simulation data.Geometry ManagerThis application is used to manage both imported and created geometry such as curves, surfaces and meshes.ViewControls the visualization of the entities on the screen.' WITH d CALL apoc.merge.node(['模块module'], {id: 'Module'}, {名称name: 'View', 描述description: 'Controls the visualization of the entities on the screen.'}, {}) YIELD node MERGE (d)-[:MENTIONS]->(node);;
MERGE (d:Document {id: '4562b3d74deb0089b00a742e67b170cb'}) SET d.text = 'UtilitiesIncludes several auxiliary functions for identifying entities, measurement and load curve generation.ResultInitiates post-processing functions for analyzing formability simulation results.ReportAutomatically generates relevant CAE analysis reports, supporting both PPT and Excel modesHelpDisDYNAORisnpumberdOnictifptionand icese maagement for Descriptions of these functions are located in their respective sections.' WITH d CALL apoc.merge.node(['功能/特性feature/function'], {id: 'Utilities'}, {名称name: 'Utilities', 描述description: 'Includes several auxiliary functions for identifying entities, measurement and load curve generation.'}, {}) YIELD node MERGE (d)-[:MENTIONS]->(node);;
MERGE (d:Document {id: '4562b3d74deb0089b00a742e67b170cb'}) SET d.text = 'UtilitiesIncludes several auxiliary functions for identifying entities, measurement and load curve generation.ResultInitiates post-processing functions for analyzing formability simulation results.ReportAutomatically generates relevant CAE analysis reports, supporting both PPT and Excel modesHelpDisDYNAORisnpumberdOnictifptionand icese maagement for Descriptions of these functions are located in their respective sections.' WITH d CALL apoc.merge.node(['功能/特性feature/function'], {id: 'Result'}, {名称name: 'Result', 描述description: 'Initiates post-processing functions for analyzing formability simulation results.'}, {}) YIELD node MERGE (d)-[:MENTIONS]->(node);;
MERGE (d:Document {id: '4562b3d74deb0089b00a742e67b170cb'}) SET d.text = 'UtilitiesIncludes several auxiliary functions for identifying entities, measurement and load curve generation.ResultInitiates post-processing functions for analyzing formability simulation results.ReportAutomatically generates relevant CAE analysis reports, supporting both PPT and Excel modesHelpDisDYNAORisnpumberdOnictifptionand icese maagement for Descriptions of these functions are located in their respective sections.' WITH d CALL apoc.merge.node(['功能/特性feature/function'], {id: 'Report'}, {名称name: 'Report', 描述description: 'Automatically generates relevant CAE analysis reports, supporting both PPT and Excel modes.'}, {}) YIELD node MERGE (d)-[:MENTIONS]->(node);;
MERGE (d:Document {id: '4562b3d74deb0089b00a742e67b170cb'}) SET d.text = 'UtilitiesIncludes several auxiliary functions for identifying entities, measurement and load curve generation.ResultInitiates post-processing functions for analyzing formability simulation results.ReportAutomatically generates relevant CAE analysis reports, supporting both PPT and Excel modesHelpDisDYNAORisnpumberdOnictifptionand icese maagement for Descriptions of these functions are located in their respective sections.' WITH d CALL apoc.merge.node(['功能/特性feature/function'], {id: 'Help'}, {名称name: 'Help', 描述description: 'DisDYNAORisnpumberdOnictifptionand icese maagement for.'}, {}) YIELD node MERGE (d)-[:MENTIONS]->(node);;
MERGE (d:Document {id: '13d350cd8a0585ecadc2b895969a249e'}) SET d.text = '1.2 ICON BAR The icon bar is designed to provide the user can easy access to the most commonly used in PROJECT functions of eta/DYNAFORM. NEW PROJECT Creates a new database. OPEN PROJECT Opens a saved database. SAVE PROJECT Saves the active database using its existing name on the existing folder. SAVE PROJECT AS Saves the existing database using another name. RELOAD FILE Reloads the database from the initial saved database.' WITH d CALL apoc.merge.node(['功能/特性feature/function'], {id: 'Icon Bar'}, {名称name: 'ICON BAR', 描述description: 'The icon bar is designed to provide the user can easy access to the most commonly used in PROJECT functions of eta/DYNAFORM.'}, {}) YIELD node MERGE (d)-[:MENTIONS]->(node);;
MERGE (d:Document {id: '13d350cd8a0585ecadc2b895969a249e'}) SET d.text = '1.2 ICON BAR The icon bar is designed to provide the user can easy access to the most commonly used in PROJECT functions of eta/DYNAFORM. NEW PROJECT Creates a new database. OPEN PROJECT Opens a saved database. SAVE PROJECT Saves the active database using its existing name on the existing folder. SAVE PROJECT AS Saves the existing database using another name. RELOAD FILE Reloads the database from the initial saved database.' WITH d CALL apoc.merge.node(['功能/特性feature/function'], {id: 'New Project'}, {名称name: 'NEW PROJECT', 描述description: 'Creates a new database.'}, {}) YIELD node MERGE (d)-[:MENTIONS]->(node);;
MERGE (d:Document {id: '13d350cd8a0585ecadc2b895969a249e'}) SET d.text = '1.2 ICON BAR The icon bar is designed to provide the user can easy access to the most commonly used in PROJECT functions of eta/DYNAFORM. NEW PROJECT Creates a new database. OPEN PROJECT Opens a saved database. SAVE PROJECT Saves the active database using its existing name on the existing folder. SAVE PROJECT AS Saves the existing database using another name. RELOAD FILE Reloads the database from the initial saved database.' WITH d CALL apoc.merge.node(['功能/特性feature/function'], {id: 'Open Project'}, {名称name: 'OPEN PROJECT', 描述description: 'Opens a saved database.'}, {}) YIELD node MERGE (d)-[:MENTIONS]->(node);;
MERGE (d:Document {id: '13d350cd8a0585ecadc2b895969a249e'}) SET d.text = '1.2 ICON BAR The icon bar is designed to provide the user can easy access to the most commonly used in PROJECT functions of eta/DYNAFORM. NEW PROJECT Creates a new database. OPEN PROJECT Opens a saved database. SAVE PROJECT Saves the active database using its existing name on the existing folder. SAVE PROJECT AS Saves the existing database using another name. RELOAD FILE Reloads the database from the initial saved database.' WITH d CALL apoc.merge.node(['功能/特性feature/function'], {id: 'Save Project'}, {名称name: 'SAVE PROJECT', 描述description: 'Saves the active database using its existing name on the existing folder.'}, {}) YIELD node MERGE (d)-[:MENTIONS]->(node);;
MERGE (d:Document {id: '13d350cd8a0585ecadc2b895969a249e'}) SET d.text = '1.2 ICON BAR The icon bar is designed to provide the user can easy access to the most commonly used in PROJECT functions of eta/DYNAFORM. NEW PROJECT Creates a new database. OPEN PROJECT Opens a saved database. SAVE PROJECT Saves the active database using its existing name on the existing folder. SAVE PROJECT AS Saves the existing database using another name. RELOAD FILE Reloads the database from the initial saved database.' WITH d CALL apoc.merge.node(['功能/特性feature/function'], {id: 'Save Project As'}, {名称name: 'SAVE PROJECT AS', 描述description: 'Saves the existing database using another name.'}, {}) YIELD node MERGE (d)-[:MENTIONS]->(node);;
MERGE (d:Document {id: '13d350cd8a0585ecadc2b895969a249e'}) SET d.text = '1.2 ICON BAR The icon bar is designed to provide the user can easy access to the most commonly used in PROJECT functions of eta/DYNAFORM. NEW PROJECT Creates a new database. OPEN PROJECT Opens a saved database. SAVE PROJECT Saves the active database using its existing name on the existing folder. SAVE PROJECT AS Saves the existing database using another name. RELOAD FILE Reloads the database from the initial saved database.' WITH d CALL apoc.merge.node(['功能/特性feature/function'], {id: 'Reload File'}, {名称name: 'RELOAD FILE', 描述description: 'Reloads the database from the initial saved database.'}, {}) YIELD node MERGE (d)-[:MENTIONS]->(node);;
MERGE (d:Document {id: '2897150791aaa773a5e85ff1c273e003'}) SET d.text = '1.3 DISPLAY WINDOW eta/DYNAFORM divides the screen into six distinct regions. The regions are used to receive functions or display messages for the user. DISPLAY AREA All model graphics are displayed in this area. MENU BAR All functions are accessible through the menu bar. Selectable Icon-based toolbars are used to access and manage all functions. ICON BAR Selectable Icon-based toolbars are used to access and manage Project functions. TASK PANEL Listing of all model entities and creation of non-graphical data entities. Process-driven dialog has an access to complete modeling tasks.' WITH d CALL apoc.merge.node(['功能/特性feature/function'], {id: 'Display_Window'}, {名称name: 'DISPLAY WINDOW', 描述description: 'eta/DYNAFORM divides the screen into six distinct regions. The regions are used to receive functions or display messages for the user.'}, {}) YIELD node MERGE (d)-[:MENTIONS]->(node);;
MERGE (d:Document {id: '2897150791aaa773a5e85ff1c273e003'}) SET d.text = '1.3 DISPLAY WINDOW eta/DYNAFORM divides the screen into six distinct regions. The regions are used to receive functions or display messages for the user. DISPLAY AREA All model graphics are displayed in this area. MENU BAR All functions are accessible through the menu bar. Selectable Icon-based toolbars are used to access and manage all functions. ICON BAR Selectable Icon-based toolbars are used to access and manage Project functions. TASK PANEL Listing of all model entities and creation of non-graphical data entities. Process-driven dialog has an access to complete modeling tasks.' WITH d CALL apoc.merge.node(['功能/特性feature/function'], {id: 'Display_Area'}, {名称name: 'DISPLAY AREA', 描述description: 'All model graphics are displayed in this area.'}, {}) YIELD node MERGE (d)-[:MENTIONS]->(node);;
MERGE (d:Document {id: '2897150791aaa773a5e85ff1c273e003'}) SET d.text = '1.3 DISPLAY WINDOW eta/DYNAFORM divides the screen into six distinct regions. The regions are used to receive functions or display messages for the user. DISPLAY AREA All model graphics are displayed in this area. MENU BAR All functions are accessible through the menu bar. Selectable Icon-based toolbars are used to access and manage all functions. ICON BAR Selectable Icon-based toolbars are used to access and manage Project functions. TASK PANEL Listing of all model entities and creation of non-graphical data entities. Process-driven dialog has an access to complete modeling tasks.' WITH d CALL apoc.merge.node(['功能/特性feature/function'], {id: 'Menu_Bar'}, {名称name: 'MENU BAR', 描述description: 'All functions are accessible through the menu bar.'}, {}) YIELD node MERGE (d)-[:MENTIONS]->(node);;
MERGE (d:Document {id: '2897150791aaa773a5e85ff1c273e003'}) SET d.text = '1.3 DISPLAY WINDOW eta/DYNAFORM divides the screen into six distinct regions. The regions are used to receive functions or display messages for the user. DISPLAY AREA All model graphics are displayed in this area. MENU BAR All functions are accessible through the menu bar. Selectable Icon-based toolbars are used to access and manage all functions. ICON BAR Selectable Icon-based toolbars are used to access and manage Project functions. TASK PANEL Listing of all model entities and creation of non-graphical data entities. Process-driven dialog has an access to complete modeling tasks.' WITH d CALL apoc.merge.node(['功能/特性feature/function'], {id: 'Icon_Bar'}, {名称name: 'ICON BAR', 描述description: 'Selectable Icon-based toolbars are used to access and manage Project functions.'}, {}) YIELD node MERGE (d)-[:MENTIONS]->(node);;
MERGE (d:Document {id: '2897150791aaa773a5e85ff1c273e003'}) SET d.text = '1.3 DISPLAY WINDOW eta/DYNAFORM divides the screen into six distinct regions. The regions are used to receive functions or display messages for the user. DISPLAY AREA All model graphics are displayed in this area. MENU BAR All functions are accessible through the menu bar. Selectable Icon-based toolbars are used to access and manage all functions. ICON BAR Selectable Icon-based toolbars are used to access and manage Project functions. TASK PANEL Listing of all model entities and creation of non-graphical data entities. Process-driven dialog has an access to complete modeling tasks.' WITH d CALL apoc.merge.node(['功能/特性feature/function'], {id: 'Task_Panel'}, {名称name: 'TASK PANEL', 描述description: 'Listing of all model entities and creation of non-graphical data entities. Process-driven dialog has an access to complete modeling tasks.'}, {}) YIELD node MERGE (d)-[:MENTIONS]->(node);;
MERGE (d:Document {id: 'a2502167b93f85a26b45be670e16f39c'}) SET d.text = 'MODEL TREE Users may turn on/off generated geometry, tools and curves by mouse clicking on thelight bulbs. MESSAGE WINDOW Results of functions and warning or error messages are printed in this window.' WITH d CALL apoc.merge.node(['模型树类型modeltreetype'], {id: 'Model Tree'}, {描述description: 'Users may turn on/off generated geometry, tools and curves by mouse clicking on the light bulbs.', 名称name: 'MODEL TREE'}, {}) YIELD node MERGE (d)-[:MENTIONS]->(node);;
MERGE (d:Document {id: 'a2502167b93f85a26b45be670e16f39c'}) SET d.text = 'MODEL TREE Users may turn on/off generated geometry, tools and curves by mouse clicking on thelight bulbs. MESSAGE WINDOW Results of functions and warning or error messages are printed in this window.' WITH d CALL apoc.merge.node(['对话框按钮dialogbutton'], {id: 'Message Window'}, {描述description: 'Results of functions and warning or error messages are printed in this window.', 名称name: 'MESSAGE WINDOW'}, {}) YIELD node MERGE (d)-[:MENTIONS]->(node);;
MERGE (d:Document {id: '705e816eed0c94cf5faf65943c1a959e'}) SET d.text = '1.4 MOUSE FUNCTIONS eta/DYNAFORM functions are accessible via the three mouse buttons. To access a function, the user moves the mouse cursor to select the desired function, followed by pressing the left mouse button. In certain functions, the middle mouse button is used to complete operations while the right mouse button is used to cancel the last operation, such as creating a line, selecting nodes, surfaces, elements or coordinate system.' WITH d CALL apoc.merge.node(['功能/特性feature/function'], {id: 'Mouse_Functions'}, {名称name: '1.4 MOUSE FUNCTIONS', 描述description: 'eta/DYNAFORM functions are accessible via the three mouse buttons. To access a function, the user moves the mouse cursor to select the desired function, followed by pressing the left mouse button. In certain functions, the middle mouse button is used to complete operations while the right mouse button is used to cancel the last operation, such as creating a line, selecting nodes, surfaces, elements or coordinate system.'}, {}) YIELD node MERGE (d)-[:MENTIONS]->(node);;
MERGE (d:Document {id: '48aa6925641532157e5be16fc11cd67a'}) SET d.text = 'These three buttons can also be used with ${ \mathrm { < C t r l > } }$ , ${ \mathrm { < A l t > } }$ and ${ \mathrm { < C t r l > + < } }$ Shift> keys respectively for rotation, translation and scaling. For CAD models, eta/DYNAFORM supports utilizing CATIA, NX and SolidWorks Mouse operations style. Control Key+ Mouse ButtonFunctionCtrl+Left ButtonRotationCtrl+Shift+ LeftButtonRotate LightCtrl+Middle ButtonTranslationCtrl+Right ButtonScaling FunctionCATIANXSolidWorksRotationThree Approaches: 1.Press MMB and then RMB. 2.Press MMB and then Ctrl.' WITH d CALL apoc.merge.node(['功能/特性feature/function'], {id: 'Control Key'}, {名称name: 'Control Key', 描述description: 'Used with mouse buttons for various functions.'}, {}) YIELD node MERGE (d)-[:MENTIONS]->(node);;
MERGE (d:Document {id: '48aa6925641532157e5be16fc11cd67a'}) SET d.text = 'These three buttons can also be used with ${ \mathrm { < C t r l > } }$ , ${ \mathrm { < A l t > } }$ and ${ \mathrm { < C t r l > + < } }$ Shift> keys respectively for rotation, translation and scaling. For CAD models, eta/DYNAFORM supports utilizing CATIA, NX and SolidWorks Mouse operations style. Control Key+ Mouse ButtonFunctionCtrl+Left ButtonRotationCtrl+Shift+ LeftButtonRotate LightCtrl+Middle ButtonTranslationCtrl+Right ButtonScaling FunctionCATIANXSolidWorksRotationThree Approaches: 1.Press MMB and then RMB. 2.Press MMB and then Ctrl.' WITH d CALL apoc.merge.node(['功能/特性feature/function'], {id: 'Mouse Button'}, {名称name: 'Mouse Button', 描述description: 'Used in combination with Control Key for operations.'}, {}) YIELD node MERGE (d)-[:MENTIONS]->(node);;
MERGE (d:Document {id: '48aa6925641532157e5be16fc11cd67a'}) SET d.text = 'These three buttons can also be used with ${ \mathrm { < C t r l > } }$ , ${ \mathrm { < A l t > } }$ and ${ \mathrm { < C t r l > + < } }$ Shift> keys respectively for rotation, translation and scaling. For CAD models, eta/DYNAFORM supports utilizing CATIA, NX and SolidWorks Mouse operations style. Control Key+ Mouse ButtonFunctionCtrl+Left ButtonRotationCtrl+Shift+ LeftButtonRotate LightCtrl+Middle ButtonTranslationCtrl+Right ButtonScaling FunctionCATIANXSolidWorksRotationThree Approaches: 1.Press MMB and then RMB. 2.Press MMB and then Ctrl.' WITH d CALL apoc.merge.node(['功能/特性feature/function'], {id: 'Function'}, {名称name: 'Function', 描述description: 'Defines the operations performed with mouse buttons.'}, {}) YIELD node MERGE (d)-[:MENTIONS]->(node);;
MERGE (d:Document {id: '48aa6925641532157e5be16fc11cd67a'}) SET d.text = 'These three buttons can also be used with ${ \mathrm { < C t r l > } }$ , ${ \mathrm { < A l t > } }$ and ${ \mathrm { < C t r l > + < } }$ Shift> keys respectively for rotation, translation and scaling. For CAD models, eta/DYNAFORM supports utilizing CATIA, NX and SolidWorks Mouse operations style. Control Key+ Mouse ButtonFunctionCtrl+Left ButtonRotationCtrl+Shift+ LeftButtonRotate LightCtrl+Middle ButtonTranslationCtrl+Right ButtonScaling FunctionCATIANXSolidWorksRotationThree Approaches: 1.Press MMB and then RMB. 2.Press MMB and then Ctrl.' WITH d CALL apoc.merge.node(['软件software'], {id: 'Catia'}, {名称name: 'CATIA', 描述description: 'CAD software supported for mouse operations.'}, {}) YIELD node MERGE (d)-[:MENTIONS]->(node);;
MERGE (d:Document {id: '48aa6925641532157e5be16fc11cd67a'}) SET d.text = 'These three buttons can also be used with ${ \mathrm { < C t r l > } }$ , ${ \mathrm { < A l t > } }$ and ${ \mathrm { < C t r l > + < } }$ Shift> keys respectively for rotation, translation and scaling. For CAD models, eta/DYNAFORM supports utilizing CATIA, NX and SolidWorks Mouse operations style. Control Key+ Mouse ButtonFunctionCtrl+Left ButtonRotationCtrl+Shift+ LeftButtonRotate LightCtrl+Middle ButtonTranslationCtrl+Right ButtonScaling FunctionCATIANXSolidWorksRotationThree Approaches: 1.Press MMB and then RMB. 2.Press MMB and then Ctrl.' WITH d CALL apoc.merge.node(['软件software'], {id: 'Nx'}, {名称name: 'NX', 描述description: 'CAD software supported for mouse operations.'}, {}) YIELD node MERGE (d)-[:MENTIONS]->(node);;
MERGE (d:Document {id: '48aa6925641532157e5be16fc11cd67a'}) SET d.text = 'These three buttons can also be used with ${ \mathrm { < C t r l > } }$ , ${ \mathrm { < A l t > } }$ and ${ \mathrm { < C t r l > + < } }$ Shift> keys respectively for rotation, translation and scaling. For CAD models, eta/DYNAFORM supports utilizing CATIA, NX and SolidWorks Mouse operations style. Control Key+ Mouse ButtonFunctionCtrl+Left ButtonRotationCtrl+Shift+ LeftButtonRotate LightCtrl+Middle ButtonTranslationCtrl+Right ButtonScaling FunctionCATIANXSolidWorksRotationThree Approaches: 1.Press MMB and then RMB. 2.Press MMB and then Ctrl.' WITH d CALL apoc.merge.node(['软件software'], {id: 'Solidworks'}, {名称name: 'SolidWorks', 描述description: 'CAD software supported for mouse operations.'}, {}) YIELD node MERGE (d)-[:MENTIONS]->(node);;
CALL apoc.merge.node(['功能/特性feature/function'], {id: 'Control Key'}, {}, {}) YIELD node as source WITH source CALL apoc.merge.node(['功能/特性feature/function'], {id: 'Mouse Button'}, {}, {}) YIELD node as target WITH source, target CALL apoc.merge.relationship(source, '使用输入设备USES_INPUT_DEVICE', {}, {}, target) YIELD rel RETURN rel;;
CALL apoc.merge.node(['功能/特性feature/function'], {id: 'Function'}, {}, {}) YIELD node as source WITH source CALL apoc.merge.node(['软件software'], {id: 'Catia'}, {}, {}) YIELD node as target WITH source, target CALL apoc.merge.relationship(source, '支持平台SUPPORTS_PLATFORM', {}, {}, target) YIELD rel RETURN rel;;
CALL apoc.merge.node(['功能/特性feature/function'], {id: 'Function'}, {}, {}) YIELD node as source WITH source CALL apoc.merge.node(['软件software'], {id: 'Nx'}, {}, {}) YIELD node as target WITH source, target CALL apoc.merge.relationship(source, '支持平台SUPPORTS_PLATFORM', {}, {}, target) YIELD rel RETURN rel;;
CALL apoc.merge.node(['功能/特性feature/function'], {id: 'Function'}, {}, {}) YIELD node as source WITH source CALL apoc.merge.node(['软件software'], {id: 'Solidworks'}, {}, {}) YIELD node as target WITH source, target CALL apoc.merge.relationship(source, '支持平台SUPPORTS_PLATFORM', {}, {}, target) YIELD rel RETURN rel;;
MERGE (d:Document {id: '9ae7dce91a79bd680f68520975c802e7'}) SET d.text = '3.Press MMB and then LMB.Hold MMB and move the mouse button.Hold MMB and move the mouse button.TranslationHoldMMB and move the mouse button.Two Approaches: 1. Shift+MMB and move the mouse. 2.MMB+RMB.Ctrl+MMBScalingCtrl+MMB and move the mouse button.Three Approaches: 1. Hold (LMB+MMB) and move the mouse button. 2. Scroll Wheel. 3. Ctrl+MMB and move the mouse buttonScroll Wheel eta/DYNAFORM provides options in the Option Center to switch operation styles from Dynaform Style to NX, Catia or SolidWorks styles.' WITH d CALL apoc.merge.node(['输入设备inputdevice'], {id: 'Mmb'}, {名称name: 'MMB', 描述description: '中键鼠标按钮'}, {}) YIELD node MERGE (d)-[:MENTIONS]->(node);;
MERGE (d:Document {id: '9ae7dce91a79bd680f68520975c802e7'}) SET d.text = '3.Press MMB and then LMB.Hold MMB and move the mouse button.Hold MMB and move the mouse button.TranslationHoldMMB and move the mouse button.Two Approaches: 1. Shift+MMB and move the mouse. 2.MMB+RMB.Ctrl+MMBScalingCtrl+MMB and move the mouse button.Three Approaches: 1. Hold (LMB+MMB) and move the mouse button. 2. Scroll Wheel. 3. Ctrl+MMB and move the mouse buttonScroll Wheel eta/DYNAFORM provides options in the Option Center to switch operation styles from Dynaform Style to NX, Catia or SolidWorks styles.' WITH d CALL apoc.merge.node(['输入设备inputdevice'], {id: 'Lmb'}, {名称name: 'LMB', 描述description: '左键鼠标按钮'}, {}) YIELD node MERGE (d)-[:MENTIONS]->(node);;
MERGE (d:Document {id: '9ae7dce91a79bd680f68520975c802e7'}) SET d.text = '3.Press MMB and then LMB.Hold MMB and move the mouse button.Hold MMB and move the mouse button.TranslationHoldMMB and move the mouse button.Two Approaches: 1. Shift+MMB and move the mouse. 2.MMB+RMB.Ctrl+MMBScalingCtrl+MMB and move the mouse button.Three Approaches: 1. Hold (LMB+MMB) and move the mouse button. 2. Scroll Wheel. 3. Ctrl+MMB and move the mouse buttonScroll Wheel eta/DYNAFORM provides options in the Option Center to switch operation styles from Dynaform Style to NX, Catia or SolidWorks styles.' WITH d CALL apoc.merge.node(['输入设备inputdevice'], {id: 'Rmb'}, {名称name: 'RMB', 描述description: '右键鼠标按钮'}, {}) YIELD node MERGE (d)-[:MENTIONS]->(node);;
MERGE (d:Document {id: '9ae7dce91a79bd680f68520975c802e7'}) SET d.text = '3.Press MMB and then LMB.Hold MMB and move the mouse button.Hold MMB and move the mouse button.TranslationHoldMMB and move the mouse button.Two Approaches: 1. Shift+MMB and move the mouse. 2.MMB+RMB.Ctrl+MMBScalingCtrl+MMB and move the mouse button.Three Approaches: 1. Hold (LMB+MMB) and move the mouse button. 2. Scroll Wheel. 3. Ctrl+MMB and move the mouse buttonScroll Wheel eta/DYNAFORM provides options in the Option Center to switch operation styles from Dynaform Style to NX, Catia or SolidWorks styles.' WITH d CALL apoc.merge.node(['输入设备inputdevice'], {id: 'Ctrl'}, {名称name: 'Ctrl', 描述description: '控制键'}, {}) YIELD node MERGE (d)-[:MENTIONS]->(node);;
MERGE (d:Document {id: '9ae7dce91a79bd680f68520975c802e7'}) SET d.text = '3.Press MMB and then LMB.Hold MMB and move the mouse button.Hold MMB and move the mouse button.TranslationHoldMMB and move the mouse button.Two Approaches: 1. Shift+MMB and move the mouse. 2.MMB+RMB.Ctrl+MMBScalingCtrl+MMB and move the mouse button.Three Approaches: 1. Hold (LMB+MMB) and move the mouse button. 2. Scroll Wheel. 3. Ctrl+MMB and move the mouse buttonScroll Wheel eta/DYNAFORM provides options in the Option Center to switch operation styles from Dynaform Style to NX, Catia or SolidWorks styles.' WITH d CALL apoc.merge.node(['输入设备inputdevice'], {id: 'Scroll Wheel'}, {名称name: 'Scroll Wheel', 描述description: '滚轮'}, {}) YIELD node MERGE (d)-[:MENTIONS]->(node);;
MERGE (d:Document {id: '9ae7dce91a79bd680f68520975c802e7'}) SET d.text = '3.Press MMB and then LMB.Hold MMB and move the mouse button.Hold MMB and move the mouse button.TranslationHoldMMB and move the mouse button.Two Approaches: 1. Shift+MMB and move the mouse. 2.MMB+RMB.Ctrl+MMBScalingCtrl+MMB and move the mouse button.Three Approaches: 1. Hold (LMB+MMB) and move the mouse button. 2. Scroll Wheel. 3. Ctrl+MMB and move the mouse buttonScroll Wheel eta/DYNAFORM provides options in the Option Center to switch operation styles from Dynaform Style to NX, Catia or SolidWorks styles.' WITH d CALL apoc.merge.node(['功能/特性feature/function'], {id: 'Dynaform Style'}, {名称name: 'Dynaform Style', 描述description: 'Dynaform操作样式'}, {}) YIELD node MERGE (d)-[:MENTIONS]->(node);;
MERGE (d:Document {id: '9ae7dce91a79bd680f68520975c802e7'}) SET d.text = '3.Press MMB and then LMB.Hold MMB and move the mouse button.Hold MMB and move the mouse button.TranslationHoldMMB and move the mouse button.Two Approaches: 1. Shift+MMB and move the mouse. 2.MMB+RMB.Ctrl+MMBScalingCtrl+MMB and move the mouse button.Three Approaches: 1. Hold (LMB+MMB) and move the mouse button. 2. Scroll Wheel. 3. Ctrl+MMB and move the mouse buttonScroll Wheel eta/DYNAFORM provides options in the Option Center to switch operation styles from Dynaform Style to NX, Catia or SolidWorks styles.' WITH d CALL apoc.merge.node(['功能/特性feature/function'], {id: 'Nx'}, {名称name: 'NX', 描述description: 'NX操作样式'}, {}) YIELD node MERGE (d)-[:MENTIONS]->(node);;
MERGE (d:Document {id: '9ae7dce91a79bd680f68520975c802e7'}) SET d.text = '3.Press MMB and then LMB.Hold MMB and move the mouse button.Hold MMB and move the mouse button.TranslationHoldMMB and move the mouse button.Two Approaches: 1. Shift+MMB and move the mouse. 2.MMB+RMB.Ctrl+MMBScalingCtrl+MMB and move the mouse button.Three Approaches: 1. Hold (LMB+MMB) and move the mouse button. 2. Scroll Wheel. 3. Ctrl+MMB and move the mouse buttonScroll Wheel eta/DYNAFORM provides options in the Option Center to switch operation styles from Dynaform Style to NX, Catia or SolidWorks styles.' WITH d CALL apoc.merge.node(['功能/特性feature/function'], {id: 'Catia'}, {名称name: 'Catia', 描述description: 'Catia操作样式'}, {}) YIELD node MERGE (d)-[:MENTIONS]->(node);;
MERGE (d:Document {id: '9ae7dce91a79bd680f68520975c802e7'}) SET d.text = '3.Press MMB and then LMB.Hold MMB and move the mouse button.Hold MMB and move the mouse button.TranslationHoldMMB and move the mouse button.Two Approaches: 1. Shift+MMB and move the mouse. 2.MMB+RMB.Ctrl+MMBScalingCtrl+MMB and move the mouse button.Three Approaches: 1. Hold (LMB+MMB) and move the mouse button. 2. Scroll Wheel. 3. Ctrl+MMB and move the mouse buttonScroll Wheel eta/DYNAFORM provides options in the Option Center to switch operation styles from Dynaform Style to NX, Catia or SolidWorks styles.' WITH d CALL apoc.merge.node(['功能/特性feature/function'], {id: 'Solidworks'}, {名称name: 'SolidWorks', 描述description: 'SolidWorks操作样式'}, {}) YIELD node MERGE (d)-[:MENTIONS]->(node);;
CALL apoc.merge.node(['功能/特性feature/function'], {id: 'Dynaform Style'}, {}, {}) YIELD node as source WITH source CALL apoc.merge.node(['功能/特性feature/function'], {id: 'Nx'}, {}, {}) YIELD node as target WITH source, target CALL apoc.merge.relationship(source, '与相关RELATED_TO', {}, {}, target) YIELD rel RETURN rel;;
CALL apoc.merge.node(['功能/特性feature/function'], {id: 'Dynaform Style'}, {}, {}) YIELD node as source WITH source CALL apoc.merge.node(['功能/特性feature/function'], {id: 'Catia'}, {}, {}) YIELD node as target WITH source, target CALL apoc.merge.relationship(source, '与相关RELATED_TO', {}, {}, target) YIELD rel RETURN rel;;
CALL apoc.merge.node(['功能/特性feature/function'], {id: 'Dynaform Style'}, {}, {}) YIELD node as source WITH source CALL apoc.merge.node(['功能/特性feature/function'], {id: 'Solidworks'}, {}, {}) YIELD node as target WITH source, target CALL apoc.merge.relationship(source, '与相关RELATED_TO', {}, {}, target) YIELD rel RETURN rel;;
